*SPEF "IEEE 1481-1998"
*DESIGN "counter"
*DATE "Thu Jan 22 17:24:56 2026"
*VENDOR "Cadence Design Systems, Inc."
*PROGRAM "Innovus"
*VERSION "21.15-s110_1"
*DESIGN_FLOW "PIN_CAP NONE" "NAME_SCOPE LOCAL"
*DIVIDER /
*DELIMITER :
*BUS_DELIMITER []
*T_UNIT 1 NS
*C_UNIT 1 PF
*R_UNIT 1 OHM
*L_UNIT 1 HENRY

// MMMC spef file for corner 'default_rc_corner'

*NAME_MAP

*1 reset
*2 clk
*3 count[7]
*4 count[6]
*5 count[5]
*6 count[4]
*7 count[3]
*8 count[2]
*9 count[1]
*10 count[0]
*11 UNCONNECTED0
*12 UNCONNECTED1
*13 UNCONNECTED2
*14 UNCONNECTED3
*15 UNCONNECTED4
*16 UNCONNECTED5
*17 n_0
*18 n_1
*19 n_2
*20 n_3
*21 n_4
*22 n_5
*23 n_6
*24 n_7
*25 n_8
*26 n_9
*27 n_10
*28 n_11
*29 n_12
*30 n_13
*31 rc_gclk
*32 RC_CG_HIER_INST1/UNCONNECTED
*33 RC_CG_HIER_INST1/enl
*34 RC_CG_HIER_INST1/n_0
*35 RC_CG_HIER_INST1/g16__2398
*36 RC_CG_HIER_INST1/enl_reg
*37 RC_CG_HIER_INST1/g18__5107
*38 count_reg\[7\]
*39 count_reg\[6\]
*40 g177__6260
*41 count_reg\[5\]
*42 g179__4319
*43 g180__8428
*44 count_reg\[4\]
*45 g182__5526
*46 g183__6783
*47 count_reg\[3\]
*48 g185__3680
*49 g186__1617
*50 count_reg\[2\]
*51 g188__2802
*52 g189__1705
*53 g190__5122
*54 count_reg\[0\]
*55 g192__8246
*56 count_reg\[1\]
*57 g194


*PORTS

*1 I *C 0 3.08
*2 I *C 3.63 50.4
*3 O *C 12.21 50.4
*4 O *C 24.75 50.4
*5 O *C 37.29 50.4
*6 O *C 49.83 50.4
*7 O *C 62.04 47.32
*8 O *C 62.04 47.32
*9 O *C 62.04 3.08
*10 O *C 62.04 3.08


*D_NET *1 0.00304055

*CONN
*I *57:A I *C 12.21 13.16 *L 0.00863 *D CLKINVX3
*P *1 I *C 0 3.08 *L 0

*CAP
1 *1:1 0.000669357
2 *1:2 0.000669357
3 *1:3 0.000850919
4 *1 0.000850919

*RES
1 *1:3 *1 4.40443
2 *1:2 *1:3 6.4
3 *1:1 *1:2 2.00608
4 *57:A *1:1 6.4
*END

*D_NET *2 0.00635701

*CONN
*I *54:CK I *C 12.21 17.08 *L 0.00287 *D DFFRX1
*I *35:B I *C 14.19 22.68 *L 0.0021 *D AND2X1
*I *36:GN I *C 10.89 33.32 *L 0.00261 *D TLATNX1
*P *2 I *C 3.63 50.4 *L 0

*CAP
1 *2:2 4.59956e-05
2 *2:3 4.59956e-05
3 *2:4 0.000371865
4 *2:5 0.00107841
5 *2:6 0.000706543
6 *2:7 9.19913e-05
7 *2:8 0.000137987
8 *2:9 9.19913e-05
9 *2:10 0.00073593
10 *2:13 0.000597943
11 *2:16 0.00111559
12 *2:17 0.00111559
13 *2:18 9.19913e-05
14 *2:19 9.19913e-05
15 *2:20 1.85932e-05
16 *2 1.85932e-05

*RES
1 *2:20 *2 0.0557244
2 *2:19 *2:20 6.4
3 *2:18 *2:19 0.476155
4 *2:17 *2:18 6.4
5 *2:16 *2:17 3.34346
6 *2:13 *2:16 6.4
7 *2:12 *36:GN 6.4
8 *2:11 *35:B 6.4
9 *2:10 *2:13 3.095
10 *2:10 *2:12 6.4
11 *2:9 *2:11 6.4
12 *2:8 *2:10 0.714232
13 *2:7 *2:9 0.476155
14 *2:6 *2:8 6.4
15 *2:5 *2:7 6.4
16 *2:5 *2:6 2.11753
17 *2:4 *2:5 1.11449
18 *2:3 *2:4 6.4
19 *2:2 *2:3 0.238077
20 *2:1 *2:2 6.4
21 *54:CK *2:1 6.4
*END

*D_NET *3 0.00159902

*CONN
*P *3 O *C 12.21 50.4 *L 0
*I *38:Q O *C 12.21 38.36 *L 0 *D JKFFRXL

*CAP
1 *3 0.000799509
2 *3:1 0.000799509

*RES
1 *3:1 *38:Q 6.4
2 *3 *3:1 2.39615
*END

*D_NET *4 0.00398877

*CONN
*I *40:A1N I *C 25.41 33.32 *L 0.00254 *D AOI2BB1X1
*P *4 O *C 24.75 50.4 *L 0
*I *42:B I *C 30.03 31.64 *L 0.00338 *D AND2X2
*I *39:Q O *C 30.69 26.6 *L 0 *D DFFRX1

*CAP
1 *4:2 0.000367965
2 *4:3 0.000321969
3 *4:4 4.59956e-05
4 *4:5 0.000111559
5 *4:6 0.00113419
6 *4:7 0.000446238
7 *4 0.00113419
8 *4:10 0.000334678
9 *4:11 4.59956e-05
10 *4:12 4.59956e-05

*RES
1 *4:13 *39:Q 6.4
2 *4:12 *4:13 6.4
3 *4:11 *4:12 0.238077
4 *4:10 *4:11 6.4
5 *4:7 *4:10 1.00304
6 *4:7 *42:B 6.4
7 *4:6 *4 3.39919
8 *4:5 *4:7 0.334346
9 *4:4 *4:6 6.4
10 *4:3 *4:5 6.4
11 *4:2 *4:4 0.238077
12 *4:2 *4:3 1.66654
13 *4:1 *4:2 6.4
14 *40:A1N *4:1 6.4
*END

*D_NET *5 0.00460729

*CONN
*I *43:A1N I *C 34.65 33.32 *L 0.00254 *D AOI2BB1X1
*I *45:B I *C 39.93 31.64 *L 0.00338 *D AND2X2
*I *41:Q O *C 47.19 36.68 *L 0 *D DFFRX1
*P *5 O *C 37.29 50.4 *L 0

*CAP
1 *5:2 0.000367965
2 *5:3 0.000367965
3 *5:4 0.000334678
4 *5:5 0.000223119
5 *5:6 0.000111559
6 *5:7 0.000689934
7 *5:9 0.000505952
8 *5:10 0.000183983
9 *5:12 0.000911069
10 *5 0.000911069

*RES
1 *5:12 *5 2.7305
2 *5:11 *41:Q 6.4
3 *5:10 *5:12 6.4
4 *5:9 *5:11 6.4
5 *5:7 *5:10 0.952309
6 *5:7 *5:9 2.61885
7 *5:6 *45:B 6.4
8 *5:5 *5:7 6.4
9 *5:4 *5:6 0.334346
10 *5:4 *5:5 0.668693
11 *5:3 *5:4 6.4
12 *5:2 *5:3 1.90462
13 *5:1 *5:2 6.4
14 *43:A1N *5:1 6.4
*END

*D_NET *6 0.00389678

*CONN
*I *46:A1N I *C 45.87 33.32 *L 0.00254 *D AOI2BB1X1
*P *6 O *C 49.83 50.4 *L 0
*I *48:B I *C 49.17 31.64 *L 0.00338 *D AND2X2
*I *44:Q O *C 47.85 26.6 *L 0 *D DFFRX1

*CAP
1 *6:2 0.000183983
2 *6:3 0.000183983
3 *6:4 0.00122715
4 *6:5 0.00111559
5 *6:6 0.000446238
6 *6:7 9.19913e-05
7 *6:8 4.59956e-05
8 *6:9 0.000334678
9 *6:10 9.19913e-05
10 *6:11 4.59956e-05
11 *6:12 4.59956e-05
12 *6:13 1.85932e-05
13 *6:15 4.59956e-05
14 *6 1.85932e-05

*RES
1 *6:18 *44:Q 6.4
2 *6:15 *6:18 6.4
3 *6:14 *48:B 6.4
4 *6:13 *6 0.0557244
5 *6:12 *6:15 0.238077
6 *6:11 *6:14 6.4
7 *6:10 *6:13 6.4
8 *6:9 *6:12 6.4
9 *6:8 *6:11 0.238077
10 *6:7 *6:10 0.476155
11 *6:6 *6:9 1.00304
12 *6:6 *6:8 6.4
13 *6:5 *6:7 6.4
14 *6:4 *6:6 0.334346
15 *6:4 *6:5 3.34346
16 *6:3 *6:4 6.4
17 *6:2 *6:3 0.952309
18 *6:1 *6:2 6.4
19 *46:A1N *6:1 6.4
*END

*D_NET *7 0.00622092

*CONN
*I *51:B I *C 50.49 21.56 *L 0.00338 *D AND2X2
*P *7 O *C 62.04 47.32 *L 0
*I *49:A1N I *C 45.87 23.24 *L 0.00254 *D AOI2BB1X1
*I *47:Q O *C 41.91 23.8 *L 0 *D DFFRX1

*CAP
1 *7:1 0.000111957
2 *7:2 0.00171667
3 *7:3 0.00160471
4 *7:4 0.000321612
5 *7:5 0.000759019
6 *7:6 0.000597585
7 *7 0.000759019
8 *7:9 0.000275974
9 *7:11 3.71865e-05
10 *7:12 3.71865e-05

*RES
1 *7:12 *47:Q 6.4
2 *7:11 *7:12 0.111449
3 *7:9 *7:11 6.4
4 *7:8 *49:A1N 6.4
5 *7:6 *7:9 1.42846
6 *7:6 *7:8 6.4
7 *7:5 *7 4.16635
8 *7:4 *7:6 1.66654
9 *7:3 *7:5 6.4
10 *7:2 *7:4 6.4
11 *7:2 *7:3 4.7923
12 *7:1 *7:2 0.334346
13 *51:B *7:1 6.4
*END

*D_NET *8 0.00672913

*CONN
*I *53:B I *C 49.17 18.76 *L 0.00338 *D AND2X2
*I *52:A1N I *C 45.21 17.08 *L 0.00254 *D AOI2BB1X1
*P *8 O *C 62.04 47.32 *L 0
*I *50:Q O *C 45.21 13.72 *L 0 *D DFFRX1

*CAP
1 *8:2 0.00110494
2 *8:3 0.000828966
3 *8:4 0.000275974
4 *8:5 0.00190326
5 *8:6 0.000111559
6 *8:7 0.00190326
7 *8:8 0.000334678
8 *8:9 2.16862e-05
9 *8:11 0.000223119
10 *8 2.16862e-05

*RES
1 *8:11 *50:Q 6.4
2 *8:9 *8 0.119039
3 *8:8 *8:11 0.668693
4 *8:8 *52:A1N 6.4
5 *8:7 *8:9 6.4
6 *8:6 *8:8 0.334346
7 *8:5 *8:7 5.68389
8 *8:4 *8:6 6.4
9 *8:3 *8:5 6.4
10 *8:2 *8:4 1.42846
11 *8:2 *8:3 4.52347
12 *8:1 *8:2 6.4
13 *53:B *8:1 6.4
*END

*D_NET *9 0.00587916

*CONN
*I *55:A I *C 50.49 12.6 *L 0.00333 *D AND2X2
*P *9 O *C 62.04 3.08 *L 0
*I *56:Q O *C 29.37 13.72 *L 0 *D DFFRX1

*CAP
1 *9:1 0.000709059
2 *9:2 7.46378e-05
3 *9:3 0.000634421
4 *9:4 0.0014715
5 *9:5 0.000759019
6 *9:6 0.0014715
7 *9 0.000759019

*RES
1 *9:8 *56:Q 6.4
2 *9:6 *9:8 6.4
3 *9:5 *9 4.16635
4 *9:4 *9:6 7.61847
5 *9:3 *9:5 6.4
6 *9:2 *9:4 6.4
7 *9:1 *9:3 1.89463
8 *9:1 *9:2 0.222898
9 *55:A *9:1 6.4
*END

*D_NET *10 0.0076024

*CONN
*I *55:B I *C 49.83 11.48 *L 0.00338 *D AND2X2
*I *54:Q O *C 26.07 16.52 *L 0 *D DFFRX1
*P *10 O *C 62.04 3.08 *L 0
*I *37:A I *C 26.07 23.24 *L 0.00353 *D OR2X2

*CAP
1 *10:1 0.000260305
2 *10:2 0.000260305
3 *10:3 0.00078297
4 *10:4 0.00165584
5 *10:5 0.00078297
6 *10:6 0.00165584
7 *10:7 0.000559783
8 *10:8 7.4373e-05
9 *10:9 0.000559783
10 *10:10 0.000520611
11 *10:11 2.16862e-05
12 *10:12 0.000446238
13 *10 2.16862e-05

*RES
1 *10:12 *37:A 6.4
2 *10:11 *10 0.119039
3 *10:10 *54:Q 6.4
4 *10:10 *10:12 1.33739
5 *10:9 *10:11 6.4
6 *10:8 *10:10 0.222898
7 *10:7 *10:9 1.67173
8 *10:6 *10:8 6.4
9 *10:5 *10:7 6.4
10 *10:4 *10:6 8.57078
11 *10:3 *10:5 4.28539
12 *10:2 *10:4 6.4
13 *10:1 *10:3 6.4
14 *10:1 *10:2 0.780142
15 *55:B *10:1 6.4
*END

*D_NET *17 0.011616

*CONN
*I *44:RN I *C 37.29 28.28 *L 0.00253 *D DFFRX1
*I *41:RN I *C 36.63 38.36 *L 0.00253 *D DFFRX1
*I *50:RN I *C 34.65 12.04 *L 0.00253 *D DFFRX1
*I *47:RN I *C 31.35 22.12 *L 0.00253 *D DFFRX1
*I *39:RN I *C 20.13 28.28 *L 0.00253 *D DFFRX1
*I *56:RN I *C 18.81 12.04 *L 0.00253 *D DFFRX1
*I *38:RN I *C 20.13 37.24 *L 0.00237 *D JKFFRXL
*I *57:Y O *C 12.87 13.16 *L 0 *D CLKINVX3
*I *54:RN I *C 15.51 18.2 *L 0.00253 *D DFFRX1

*CAP
1 *17:2 4.59956e-05
2 *17:3 4.59956e-05
3 *17:4 0.000892476
4 *17:5 0.000669357
5 *17:6 0.000223119
6 *17:8 0.000137987
7 *17:9 0.000137987
8 *17:10 0.000185932
9 *17:11 0.000855289
10 *17:12 0.000229978
11 *17:13 0.000669357
12 *17:14 0.000229978
13 *17:16 0.0010119
14 *17:18 0.0011039
15 *17:20 0.00107841
16 *17:21 9.19913e-05
17 *17:22 0.00167339
18 *17:23 3.71865e-05
19 *17:24 0.000594984
20 *17:26 3.71865e-05
21 *17:29 0.000275974
22 *17:30 0.000275974
23 *17:31 3.71865e-05
24 *17:32 0.000371865
25 *17:33 0.000334678
26 *17:34 0.000137987
27 *17:35 4.59956e-05
28 *17:36 0.000137987
29 *17:37 4.59956e-05

*RES
1 *17:39 *54:RN 6.4
2 *17:38 *57:Y 6.4
3 *17:37 *17:39 6.4
4 *17:36 *17:38 6.4
5 *17:35 *17:37 0.238077
6 *17:34 *17:36 0.714232
7 *17:33 *17:35 6.4
8 *17:32 *17:34 6.4
9 *17:32 *17:33 1.00304
10 *17:31 *17:32 0.111449
11 *17:30 *17:31 6.4
12 *17:29 *17:30 1.42846
13 *17:26 *17:29 6.4
14 *17:24 *38:RN 6.4
15 *17:23 *56:RN 6.4
16 *17:23 *17:26 0.111449
17 *17:22 *39:RN 6.4
18 *17:22 *17:24 1.78318
19 *17:21 *17:23 6.4
20 *17:20 *17:22 3.23202
21 *17:18 *17:21 0.476155
22 *17:18 *17:20 6.4
23 *17:17 *47:RN 6.4
24 *17:16 *17:18 5.2377
25 *17:14 *17:17 6.4
26 *17:13 *17:16 6.4
27 *17:13 *50:RN 6.4
28 *17:12 *17:14 1.19039
29 *17:11 *17:13 2.00608
30 *17:11 *17:12 6.4
31 *17:10 *17:11 0.557244
32 *17:9 *17:10 6.4
33 *17:8 *17:9 0.714232
34 *17:6 *17:8 6.4
35 *17:5 *41:RN 6.4
36 *17:4 *17:6 0.668693
37 *17:4 *17:5 2.00608
38 *17:3 *17:4 6.4
39 *17:2 *17:3 0.238077
40 *17:1 *17:2 6.4
41 *44:RN *17:1 6.4
*END

*D_NET *18 0.00111169

*CONN
*I *52:A0N I *C 45.87 17.64 *L 0.0025 *D AOI2BB1X1
*I *53:A I *C 48.51 17.64 *L 0.00333 *D AND2X2
*I *55:Y O *C 48.51 12.04 *L 0 *D AND2X2

*CAP
1 *18:2 0.000183983
2 *18:3 0.000183983
3 *18:4 0.000371865
4 *18:6 0.000371865

*RES
1 *18:6 *55:Y 6.4
2 *18:4 *18:6 1.11449
3 *18:4 *53:A 6.4
4 *18:3 *18:4 6.4
5 *18:2 *18:3 0.952309
6 *18:1 *18:2 6.4
7 *52:A0N *18:1 6.4
*END

*D_NET *19 0.00229002

*CONN
*I *52:B0 I *C 44.55 18.2 *L 0.00422 *D AOI2BB1X1
*I *49:A0N I *C 46.53 22.68 *L 0.0025 *D AOI2BB1X1
*I *51:A I *C 51.15 22.68 *L 0.00333 *D AND2X2
*I *53:Y O *C 50.49 18.2 *L 0 *D AND2X2

*CAP
1 *19:2 0.000229978
2 *19:3 0.000229978
3 *19:4 0.000297492
4 *19:5 0.000297492
5 *19:6 0.000275616
6 *19:7 0.000226997
7 *19:8 9.19913e-05
8 *19:9 4.33725e-05
9 *19:10 0.000298551
10 *19:13 0.000298551

*RES
1 *19:13 *53:Y 6.4
2 *19:12 *51:A 6.4
3 *19:11 *49:A0N 6.4
4 *19:10 *19:13 0.89159
5 *19:9 *19:12 6.4
6 *19:8 *19:11 6.4
7 *19:7 *19:10 6.4
8 *19:7 *19:9 0.238077
9 *19:6 *19:8 0.476155
10 *19:6 *19:7 0.952309
11 *19:5 *19:6 6.4
12 *19:4 *19:5 0.89159
13 *19:3 *19:4 6.4
14 *19:2 *19:3 1.19039
15 *19:1 *19:2 6.4
16 *52:B0 *19:1 6.4
*END

*D_NET *20 0.00225083

*CONN
*I *50:D I *C 32.01 12.04 *L 0.00219 *D DFFRX1
*I *52:Y O *C 43.89 16.52 *L 0 *D AOI2BB1X1

*CAP
1 *20:1 0.000297492
2 *20:2 0.000297492
3 *20:3 0.000827921
4 *20:4 0.000827921

*RES
1 *20:5 *52:Y 6.4
2 *20:4 *20:5 6.4
3 *20:3 *20:4 4.28539
4 *20:2 *20:3 6.4
5 *20:1 *20:2 0.89159
6 *50:D *20:1 6.4
*END

*D_NET *21 0.002333

*CONN
*I *46:A0N I *C 46.53 32.76 *L 0.0025 *D AOI2BB1X1
*I *48:A I *C 48.51 32.76 *L 0.00333 *D AND2X2
*I *51:Y O *C 49.17 22.12 *L 0 *D AND2X2
*I *49:B0 I *C 45.21 22.12 *L 0.00422 *D AOI2BB1X1

*CAP
1 *21:2 0.000137987
2 *21:3 0.000183983
3 *21:4 4.59956e-05
4 *21:6 0.000706543
5 *21:8 0.000706543
6 *21:9 0.000275974
7 *21:11 0.000275974

*RES
1 *21:12 *49:B0 6.4
2 *21:11 *21:12 6.4
3 *21:9 *21:11 1.42846
4 *21:8 *51:Y 6.4
5 *21:8 *21:9 6.4
6 *21:6 *21:8 2.11753
7 *21:5 *48:A 6.4
8 *21:4 *21:6 6.4
9 *21:3 *21:5 6.4
10 *21:3 *21:4 0.238077
11 *21:2 *21:3 0.714232
12 *21:1 *21:2 6.4
13 *46:A0N *21:1 6.4
*END

*D_NET *22 0.00243091

*CONN
*I *47:D I *C 28.71 22.12 *L 0.00219 *D DFFRX1
*I *49:Y O *C 44.55 23.8 *L 0 *D AOI2BB1X1

*CAP
1 *22:1 3.71865e-05
2 *22:2 3.71865e-05
3 *22:3 0.0011039
4 *22:4 0.0011039
5 *22:5 7.4373e-05
6 *22:6 7.4373e-05

*RES
1 *22:6 *49:Y 6.4
2 *22:5 *22:6 0.222898
3 *22:4 *22:5 6.4
4 *22:3 *22:4 5.71385
5 *22:2 *22:3 6.4
6 *22:1 *22:2 0.111449
7 *47:D *22:1 6.4
*END

*D_NET *23 0.00226383

*CONN
*I *43:A0N I *C 35.31 32.76 *L 0.0025 *D AOI2BB1X1
*I *46:B0 I *C 45.21 32.2 *L 0.00422 *D AOI2BB1X1
*I *45:A I *C 40.59 32.76 *L 0.00333 *D AND2X2
*I *48:Y O *C 50.49 32.2 *L 0 *D AND2X2

*CAP
1 *23:1 3.71865e-05
2 *23:2 3.71865e-05
3 *23:3 0.000367965
4 *23:4 0.000689934
5 *23:5 0.000689577
6 *23:6 3.71865e-05
7 *23:7 0.000367607
8 *23:9 3.71865e-05

*RES
1 *23:10 *48:Y 6.4
2 *23:9 *45:A 6.4
3 *23:8 *46:B0 6.4
4 *23:7 *23:10 6.4
5 *23:6 *23:9 0.111449
6 *23:5 *23:8 6.4
7 *23:5 *23:7 1.90462
8 *23:4 *23:6 6.4
9 *23:4 *23:5 1.66654
10 *23:3 *23:4 1.90462
11 *23:2 *23:3 6.4
12 *23:1 *23:2 0.111449
13 *43:A0N *23:1 6.4
*END

*D_NET *24 0.0021236

*CONN
*I *44:D I *C 34.65 28.28 *L 0.00219 *D DFFRX1
*I *46:Y O *C 44.55 33.88 *L 0 *D AOI2BB1X1

*CAP
1 *24:2 0.000689934
2 *24:3 0.000689934
3 *24:4 0.000371865
4 *24:5 0.000371865

*RES
1 *24:5 *46:Y 6.4
2 *24:4 *24:5 1.11449
3 *24:3 *24:4 6.4
4 *24:2 *24:3 3.57116
5 *24:1 *24:2 6.4
6 *44:D *24:1 6.4
*END

*D_NET *25 0.00189658

*CONN
*I *40:A0N I *C 26.07 32.76 *L 0.0025 *D AOI2BB1X1
*I *42:A I *C 30.69 32.76 *L 0.00333 *D AND2X2
*I *43:B0 I *C 33.99 32.2 *L 0.00422 *D AOI2BB1X1
*I *45:Y O *C 38.61 32.2 *L 0 *D AND2X2

*CAP
1 *25:2 0.000321969
2 *25:3 0.000551948
3 *25:4 0.000551948
4 *25:6 0.000321969
5 *25:7 3.71865e-05
6 *25:9 3.71865e-05
7 *25:10 3.71865e-05
8 *25:11 3.71865e-05

*RES
1 *25:11 *45:Y 6.4
2 *25:10 *43:B0 6.4
3 *25:9 *25:11 0.111449
4 *25:7 *25:10 0.111449
5 *25:6 *25:9 6.4
6 *25:5 *42:A 6.4
7 *25:4 *25:7 6.4
8 *25:4 *25:6 1.66654
9 *25:3 *25:5 6.4
10 *25:3 *25:4 1.19039
11 *25:2 *25:3 1.66654
12 *25:1 *25:2 6.4
13 *40:A0N *25:1 6.4
*END

*D_NET *26 0.000686975

*CONN
*I *41:D I *C 33.99 38.36 *L 0.00219 *D DFFRX1
*I *43:Y O *C 33.33 33.88 *L 0 *D AOI2BB1X1

*CAP
1 *26:1 0.000297492
2 *26:2 0.000297492
3 *26:3 4.59956e-05
4 *26:4 4.59956e-05

*RES
1 *26:5 *43:Y 6.4
2 *26:4 *26:5 6.4
3 *26:3 *26:4 0.238077
4 *26:2 *26:3 6.4
5 *26:1 *26:2 0.89159
6 *41:D *26:1 6.4
*END

*D_NET *27 0.00181629

*CONN
*I *38:J I *C 25.41 36.68 *L 0.00288 *D JKFFRXL
*I *40:B0 I *C 24.75 32.2 *L 0.00422 *D AOI2BB1X1
*I *42:Y O *C 28.71 32.2 *L 0 *D AND2X2
*I *38:K I *C 27.39 37.24 *L 0.00263 *D JKFFRXL

*CAP
1 *27:1 0.000297492
2 *27:2 0.000297492
3 *27:3 0.000183983
4 *27:4 0.000229978
5 *27:5 4.59956e-05
6 *27:6 9.19913e-05
7 *27:7 0.000334678
8 *27:10 0.000334678

*RES
1 *27:10 *38:K 6.4
2 *27:9 *42:Y 6.4
3 *27:8 *40:B0 6.4
4 *27:7 *27:10 1.00304
5 *27:6 *27:9 6.4
6 *27:5 *27:8 6.4
7 *27:4 *27:7 6.4
8 *27:4 *27:6 0.476155
9 *27:3 *27:5 0.238077
10 *27:3 *27:4 0.714232
11 *27:2 *27:3 6.4
12 *27:1 *27:2 0.89159
13 *38:J *27:1 6.4
*END

*D_NET *28 0.00166364

*CONN
*I *39:D I *C 17.49 28.28 *L 0.00219 *D DFFRX1
*I *40:Y O *C 24.09 33.88 *L 0 *D AOI2BB1X1

*CAP
1 *28:2 0.000413961
2 *28:3 0.000413961
3 *28:4 0.000371865
4 *28:5 0.000371865
5 *28:6 4.59956e-05
6 *28:7 4.59956e-05

*RES
1 *28:8 *40:Y 6.4
2 *28:7 *28:8 6.4
3 *28:6 *28:7 0.238077
4 *28:5 *28:6 6.4
5 *28:4 *28:5 1.11449
6 *28:3 *28:4 6.4
7 *28:2 *28:3 2.1427
8 *28:1 *28:2 6.4
9 *39:D *28:1 6.4
*END

*D_NET *29 0.00173022

*CONN
*I *54:D I *C 12.87 18.2 *L 0.00219 *D DFFRX1
*I *54:QN O *C 24.75 18.76 *L 0 *D DFFRX1

*CAP
1 *29:2 0.000827921
2 *29:3 0.000827921
3 *29:4 3.71865e-05
4 *29:5 3.71865e-05

*RES
1 *29:5 *54:QN 6.4
2 *29:4 *29:5 0.111449
3 *29:3 *29:4 6.4
4 *29:2 *29:3 4.28539
5 *29:1 *29:2 6.4
6 *54:D *29:1 6.4
*END

*D_NET *30 0.00173022

*CONN
*I *56:D I *C 16.17 12.04 *L 0.00219 *D DFFRX1
*I *56:QN O *C 28.05 11.48 *L 0 *D DFFRX1

*CAP
1 *30:1 3.71865e-05
2 *30:2 3.71865e-05
3 *30:3 0.000827921
4 *30:4 0.000827921

*RES
1 *30:5 *56:QN 6.4
2 *30:4 *30:5 6.4
3 *30:3 *30:4 4.28539
4 *30:2 *30:3 6.4
5 *30:1 *30:2 0.111449
6 *56:D *30:1 6.4
*END

*D_NET *31 0.00844342

*CONN
*I *38:CK I *C 28.05 37.8 *L 0.00217 *D JKFFRXL
*I *41:CK I *C 33.33 37.24 *L 0.00287 *D DFFRX1
*I *44:CK I *C 33.99 27.16 *L 0.00287 *D DFFRX1
*I *50:CK I *C 31.35 13.16 *L 0.00287 *D DFFRX1
*I *47:CK I *C 28.05 23.24 *L 0.00287 *D DFFRX1
*I *39:CK I *C 16.83 27.16 *L 0.00287 *D DFFRX1
*I *35:Y O *C 15.51 22.12 *L 0 *D AND2X1
*I *56:CK I *C 15.51 13.16 *L 0.00287 *D DFFRX1

*CAP
1 *31:2 0.000367965
2 *31:3 0.000367965
3 *31:4 3.71865e-05
4 *31:5 0.000706543
5 *31:7 0.000929662
6 *31:8 4.59956e-05
7 *31:9 0.000260305
8 *31:10 4.59956e-05
9 *31:11 0.000137987
10 *31:13 0.000367965
11 *31:15 0.000669357
12 *31:16 0.0010119
13 *31:17 0.000669357
14 *31:19 0.000781926
15 *31:22 0.000297492
16 *31:23 0.000260305
17 *31:24 3.71865e-05
18 *31:26 9.19913e-05
19 *31:27 9.19913e-05
20 *31:28 3.71865e-05
21 *31:29 0.00063217
22 *31:31 0.000594984

*RES
1 *31:31 *56:CK 6.4
2 *31:29 *31:31 1.78318
3 *31:29 *35:Y 6.4
4 *31:28 *31:29 0.111449
5 *31:27 *31:28 6.4
6 *31:26 *31:27 0.476155
7 *31:24 *31:26 6.4
8 *31:23 *39:CK 6.4
9 *31:22 *31:24 0.111449
10 *31:22 *31:23 0.780142
11 *31:19 *31:22 6.4
12 *31:18 *47:CK 6.4
13 *31:17 *50:CK 6.4
14 *31:16 *31:19 4.04731
15 *31:16 *31:18 6.4
16 *31:15 *31:17 2.00608
17 *31:13 *31:16 1.19039
18 *31:13 *31:15 6.4
19 *31:12 *44:CK 6.4
20 *31:11 *31:13 0.714232
21 *31:10 *31:12 6.4
22 *31:9 *31:11 6.4
23 *31:8 *31:10 0.238077
24 *31:7 *31:9 0.780142
25 *31:7 *31:8 6.4
26 *31:5 *31:7 2.00608
27 *31:5 *41:CK 6.4
28 *31:4 *31:5 0.111449
29 *31:3 *31:4 6.4
30 *31:2 *31:3 1.90462
31 *31:1 *31:2 6.4
32 *38:CK *31:1 6.4
*END

*D_NET *33 0.00185542

*CONN
*I *35:A I *C 13.53 23.24 *L 0.00199 *D AND2X1
*I *36:Q O *C 16.17 34.44 *L 0 *D TLATNX1

*CAP
1 *33:1 0.00074373
2 *33:2 0.00074373
3 *33:3 0.000183983
4 *33:4 0.000183983

*RES
1 *33:5 *36:Q 6.4
2 *33:4 *33:5 6.4
3 *33:3 *33:4 0.952309
4 *33:2 *33:3 6.4
5 *33:1 *33:2 2.22898
6 *35:A *33:1 6.4
*END

*D_NET *34 0.00267945

*CONN
*I *36:D I *C 12.87 32.76 *L 0.00408 *D TLATNX1
*I *37:Y O *C 24.09 24.36 *L 0 *D OR2X2

*CAP
1 *34:2 0.000781926
2 *34:3 0.000781926
3 *34:4 0.000557797
4 *34:5 0.000557797

*RES
1 *34:5 *37:Y 6.4
2 *34:4 *34:5 1.67173
3 *34:3 *34:4 6.4
4 *34:2 *34:3 4.04731
5 *34:1 *34:2 6.4
6 *36:D *34:1 6.4
*END

