*SPEF "IEEE 1481-1998"
*DESIGN "simple_alu"
*DATE "Tue Jan 20 17:22:17 2026"
*VENDOR "Cadence Design Systems, Inc."
*PROGRAM "Innovus"
*VERSION "21.15-s110_1"
*DESIGN_FLOW "PIN_CAP NONE" "NAME_SCOPE LOCAL"
*DIVIDER /
*DELIMITER :
*BUS_DELIMITER []
*T_UNIT 1 NS
*C_UNIT 1 PF
*R_UNIT 1 OHM
*L_UNIT 1 HENRY

// MMMC spef file for corner 'rc_corner'

*NAME_MAP

*1 A[31]
*2 A[30]
*3 A[29]
*4 A[28]
*5 A[27]
*6 A[26]
*7 A[25]
*8 A[24]
*9 A[23]
*10 A[22]
*11 A[21]
*12 A[20]
*13 A[19]
*14 A[18]
*15 A[17]
*16 A[16]
*17 A[15]
*18 A[14]
*19 A[13]
*20 A[12]
*21 A[11]
*22 A[10]
*23 A[9]
*24 A[8]
*25 A[7]
*26 A[6]
*27 A[5]
*28 A[4]
*29 A[3]
*30 A[2]
*31 A[1]
*32 A[0]
*33 B[31]
*34 B[30]
*35 B[29]
*36 B[28]
*37 B[27]
*38 B[26]
*39 B[25]
*40 B[24]
*41 B[23]
*42 B[22]
*43 B[21]
*44 B[20]
*45 B[19]
*46 B[18]
*47 B[17]
*48 B[16]
*49 B[15]
*50 B[14]
*51 B[13]
*52 B[12]
*53 B[11]
*54 B[10]
*55 B[9]
*56 B[8]
*57 B[7]
*58 B[6]
*59 B[5]
*60 B[4]
*61 B[3]
*62 B[2]
*63 B[1]
*64 B[0]
*65 ALUControl[1]
*66 ALUControl[0]
*67 Result[31]
*68 Result[30]
*69 Result[29]
*70 Result[28]
*71 Result[27]
*72 Result[26]
*73 Result[25]
*74 Result[24]
*75 Result[23]
*76 Result[22]
*77 Result[21]
*78 Result[20]
*79 Result[19]
*80 Result[18]
*81 Result[17]
*82 Result[16]
*83 Result[15]
*84 Result[14]
*85 Result[13]
*86 Result[12]
*87 Result[11]
*88 Result[10]
*89 Result[9]
*90 Result[8]
*91 Result[7]
*92 Result[6]
*93 Result[5]
*94 Result[4]
*95 Result[3]
*96 Result[2]
*97 Result[1]
*98 Result[0]
*99 zero
*100 Cout
*101 Sum[31]
*102 Sum[30]
*103 Sum[29]
*104 Sum[28]
*105 Sum[27]
*106 Sum[26]
*107 Sum[25]
*108 Sum[24]
*109 Sum[23]
*110 Sum[22]
*111 Sum[21]
*112 Sum[20]
*113 Sum[19]
*114 Sum[18]
*115 Sum[17]
*116 Sum[16]
*117 Sum[15]
*118 Sum[14]
*119 Sum[13]
*120 Sum[12]
*121 Sum[11]
*122 Sum[10]
*123 Sum[9]
*124 Sum[8]
*125 Sum[7]
*126 Sum[6]
*127 Sum[5]
*128 Sum[4]
*129 Sum[3]
*130 Sum[2]
*131 Sum[1]
*132 Sum[0]
*133 I1_carry[31]
*134 I1_carry[30]
*135 I1_carry[29]
*136 I1_carry[28]
*137 I1_carry[27]
*138 I1_carry[26]
*139 I1_carry[25]
*140 I1_carry[24]
*141 I1_carry[23]
*142 I1_carry[22]
*143 I1_carry[21]
*144 I1_carry[20]
*145 I1_carry[19]
*146 I1_carry[18]
*147 I1_carry[17]
*148 I1_carry[16]
*149 I1_carry[15]
*150 I1_carry[14]
*151 I1_carry[13]
*152 I1_carry[12]
*153 I1_carry[11]
*154 I1_carry[10]
*155 I1_carry[9]
*156 I1_carry[8]
*157 I1_carry[7]
*158 I1_carry[6]
*159 I1_carry[5]
*160 I1_carry[4]
*161 I1_carry[3]
*162 I1_carry[2]
*163 I1_carry[1]
*164 B_input[31]
*165 B_input[30]
*166 B_input[29]
*167 B_input[28]
*168 B_input[27]
*169 B_input[26]
*170 B_input[25]
*171 B_input[24]
*172 B_input[23]
*173 B_input[22]
*174 B_input[21]
*175 B_input[20]
*176 B_input[19]
*177 B_input[18]
*178 B_input[17]
*179 B_input[16]
*180 B_input[15]
*181 B_input[14]
*182 B_input[13]
*183 B_input[12]
*184 B_input[11]
*185 B_input[10]
*186 B_input[9]
*187 B_input[8]
*188 B_input[7]
*189 B_input[6]
*190 B_input[5]
*191 B_input[4]
*192 B_input[3]
*193 B_input[2]
*194 n_0
*195 n_1
*196 n_30
*197 n_31
*198 n_32
*199 n_33
*200 n_53
*201 n_54
*202 n_55
*203 n_56
*204 n_57
*205 n_58
*206 n_59
*207 n_60
*208 n_61
*209 n_62
*210 n_63
*211 n_64
*212 n_65
*213 n_66
*214 n_67
*215 n_68
*216 n_69
*217 n_70
*218 n_71
*219 n_72
*220 n_73
*221 n_74
*222 n_75
*223 n_76
*224 n_77
*225 n_78
*226 n_79
*227 n_80
*228 n_81
*229 n_82
*230 n_83
*231 n_84
*232 n_85
*233 n_86
*234 n_87
*235 n_88
*236 n_89
*237 n_90
*238 n_91
*239 n_92
*240 n_93
*241 n_94
*242 n_95
*243 n_96
*244 n_97
*245 n_98
*246 n_99
*247 n_100
*248 n_101
*249 n_102
*250 n_103
*251 n_104
*252 n_105
*253 n_106
*254 n_107
*255 n_108
*256 n_109
*257 n_110
*258 n_111
*259 n_112
*260 n_113
*261 n_114
*262 n_115
*263 n_116
*264 n_117
*265 n_118
*266 n_119
*267 n_120
*268 n_121
*269 n_122
*270 n_123
*271 n_147
*272 n_148
*273 n_258
*274 n_259
*275 I1_INST0/g83__2398
*276 I1_INST1/g75__5107
*277 I1_INST2/g75__6260
*278 I1_INST3/g75__4319
*279 I1_INST4/g75__8428
*280 I1_INST5/g75__5526
*281 I1_INST6/g75__6783
*282 I1_INST7/g75__3680
*283 I1_INST8/g75__1617
*284 I1_INST9/g75__2802
*285 I1_INST10/g75__1705
*286 I1_INST11/g75__5122
*287 I1_INST12/g75__8246
*288 I1_INST13/g75__7098
*289 I1_INST14/g75__6131
*290 I1_INST15/g75__1881
*291 I1_INST16/g75__5115
*292 I1_INST17/g75__7482
*293 I1_INST18/g75__4733
*294 I1_INST19/g75__6161
*295 I1_INST20/g75__9315
*296 I1_INST21/g75__9945
*297 I1_INST22/g75__2883
*298 I1_INST23/g75__2346
*299 I1_INST24/g75__1666
*300 I1_INST25/g75__7410
*301 I1_INST26/g75__6417
*302 I1_INST27/g75__5477
*303 I1_INST28/g75__2398
*304 I1_INST29/g75__5107
*305 I1_INST30/g75__6260
*306 I1_INST31/g75__4319
*307 g2010
*308 g2011
*309 g2034__8428
*310 g1972__5526
*311 g1973__6783
*312 g1974__3680
*313 g1975__1617
*314 g1976__2802
*315 g1977__1705
*316 g1978__5122
*317 g1979__8246
*318 g1980__7098
*319 g1981__6131
*320 g1982__1881
*321 g1983__5115
*322 g1984__7482
*323 g1985__4733
*324 g1986__6161
*325 g1987__9315
*326 g1988__9945
*327 g5312__2883
*328 g5313__2346
*329 g5314__1666
*330 g5315__7410
*331 g5316__6417
*332 g5317__5477
*333 g5318__2398
*334 g5319__5107
*335 g5320__6260
*336 g5321__4319
*337 g5322__8428
*338 g5323__5526
*339 g5324__6783
*340 g5325__3680
*341 g5326__1617
*342 g5327__2802
*343 g5328__1705
*344 g5329__5122
*345 g5330__8246
*346 g5331__7098
*347 g5332__6131
*348 g5333__1881
*349 g5334__5115
*350 g5335__7482
*351 g5336__4733
*352 g5337__6161
*353 g5338__9315
*354 g5339__9945
*355 g5340__2883
*356 g5341__2346
*357 g5342__1666
*358 g5343__7410
*359 g5344__6417
*360 g5345__5477
*361 g5346__2398
*362 g5347__5107
*363 g5348__6260
*364 g5349__4319
*365 g5350__8428
*366 g5351__5526
*367 g5352__6783
*368 g5353__3680
*369 g5354__1617
*370 g5355__2802
*371 g5356__1705
*372 g5357__5122
*373 g5358__8246
*374 g5359__7098
*375 g5360__6131
*376 g5361__1881
*377 g5362__5115
*378 g5363__7482
*379 g5364__4733
*380 g5365__6161
*381 g5366__9315
*382 g5367__9945
*383 g5368__2883
*384 g5369__2346
*385 g5370__1666
*386 g5371__7410
*387 g5372__6417
*388 g5373__5477
*389 g5374__2398
*390 g5375__5107
*391 g5376__6260
*392 g5377__4319
*393 g5378__8428
*394 g5379__5526
*395 g5380__6783
*396 g5381__3680
*397 g5382__1617
*398 g5383__2802
*399 g5384__1705
*400 g5385__5122
*401 g5386__8246
*402 g5387__7098
*403 g5388__6131
*404 g5389__1881
*405 g5390__5115
*406 g5391__7482
*407 g5392__4733
*408 g5393__6161
*409 g5394__9315
*410 g5395__9945
*411 g5396__2883
*412 g5397__2346
*413 g5398__1666
*414 g5399__7410
*415 g5400__6417
*416 g5401__5477
*417 g5402__2398
*418 g5403__5107
*419 g5404__6260
*420 g5405__4319
*421 g5406__8428
*422 g5407__5526
*423 g5408__6783
*424 g5409__3680
*425 g5410__1617
*426 g5411__2802
*427 g5412__1705
*428 g5413__5122
*429 g5414__8246
*430 g5415__7098
*431 g5435__6131
*432 g5436__1881
*433 g5437__5115
*434 g5438__7482
*435 g5466
*436 g5468
*437 g1989__4733
*438 g1990__6161
*439 g1991__9315
*440 g1992__9945
*441 g1993__2883
*442 g1994__2346
*443 g1995__1666
*444 g1996__7410
*445 g1997__6417
*446 g1998__5477
*447 g1999__2398
*448 g2000__5107
*449 g2__6260
*450 g5493__4319


*PORTS

*1 I *C 0.1 54.34
*2 I *C 0.5 54.34
*3 I *C 1.1 54.34
*4 I *C 1.7 54.34
*5 I *C 2.3 54.34
*6 I *C 2.9 54.34
*7 I *C 3.3 54.34
*8 I *C 3.9 54.34
*9 I *C 4.5 54.34
*10 I *C 5.1 54.34
*11 I *C 5.7 54.34
*12 I *C 6.3 54.34
*13 I *C 6.7 54.34
*14 I *C 7.3 54.34
*15 I *C 7.9 54.34
*16 I *C 8.5 54.34
*17 I *C 9.1 54.34
*18 I *C 9.7 54.34
*19 I *C 10.1 54.34
*20 I *C 10.7 54.34
*21 I *C 11.3 54.34
*22 I *C 11.9 54.34
*23 I *C 12.5 54.34
*24 I *C 13.1 54.34
*25 I *C 13.5 54.34
*26 I *C 14.1 54.34
*27 I *C 14.7 54.34
*28 I *C 15.3 54.34
*29 I *C 15.9 54.34
*30 I *C 16.5 54.34
*31 I *C 16.9 54.34
*32 I *C 17.5 54.34
*33 I *C 18.1 54.34
*34 I *C 18.7 54.34
*35 I *C 19.3 54.34
*36 I *C 19.7 54.34
*37 I *C 20.3 54.34
*38 I *C 20.9 54.34
*39 I *C 21.5 54.34
*40 I *C 22.1 54.34
*41 I *C 22.7 54.34
*42 I *C 23.1 54.34
*43 I *C 23.7 54.34
*44 I *C 24.3 54.34
*45 I *C 24.9 54.34
*46 I *C 25.5 54.34
*47 I *C 26.1 54.34
*48 I *C 26.5 54.34
*49 I *C 27.1 54.34
*50 I *C 27.7 54.34
*51 I *C 28.3 54.34
*52 I *C 28.9 54.34
*53 I *C 29.5 54.34
*54 I *C 29.9 54.34
*55 I *C 30.5 54.34
*56 I *C 31.1 54.34
*57 I *C 31.7 54.34
*58 I *C 32.3 54.34
*59 I *C 32.9 54.34
*60 I *C 33.3 54.34
*61 I *C 33.9 54.34
*62 I *C 34.5 54.34
*63 I *C 35.1 54.34
*64 I *C 35.7 54.34
*65 I *C 36.3 54.34
*66 I *C 36.7 54.34
*67 O *C 37.3 54.34
*68 O *C 37.9 54.34
*69 O *C 38.5 54.34
*70 O *C 39.1 54.34
*71 O *C 39.5 54.34
*72 O *C 40.1 54.34
*73 O *C 40.7 54.34
*74 O *C 41.3 54.34
*75 O *C 41.9 54.34
*76 O *C 42.5 54.34
*77 O *C 42.9 54.34
*78 O *C 43.5 54.34
*79 O *C 44.1 54.34
*80 O *C 44.7 54.34
*81 O *C 45.3 54.34
*82 O *C 45.9 54.34
*83 O *C 46.3 54.34
*84 O *C 46.9 54.34
*85 O *C 47.5 54.34
*86 O *C 48.1 54.34
*87 O *C 48.7 54.34
*88 O *C 49.3 54.34
*89 O *C 49.7 54.34
*90 O *C 50.3 54.34
*91 O *C 50.9 54.34
*92 O *C 51.5 54.34
*93 O *C 52.1 54.34
*94 O *C 52.7 54.34
*95 O *C 53.1 54.34
*96 O *C 53.7 54.34
*97 O *C 54.3 54.34
*98 O *C 54.9 54.34
*99 O *C 55.5 54.34
*100 O *C 55.9 54.34


*D_NET *1 0.00406662

*CONN
*I *306:A I *C 20.58 41.77 *L 0.00293 *D ADDFHX1
*I *371:A2 I *C 18.5 43.415 *L 0.00148 *D AOI31X2
*I *418:A1N I *C 16.5 43.225 *L 0.000607 *D AOI2BB1X2
*P *1 I *C 0.1 54.34 *L 0

*CAP
1 *1:1 5.2107e-06
2 *1:2 1.00957e-05
3 *1:3 4.88503e-06
4 *1:4 0.000127736
5 *1:5 0.000127736
6 *1:6 0.00011203
7 *1:7 0.000117241
8 *1:8 5.2107e-06
9 *1:10 0.000126258
10 *1:11 0.00104734
11 *1:12 1.61818e-05
12 *1:13 0.000921081
13 *1:14 1.61818e-05
14 *1:15 0.000628726
15 *1:17 0.000628726
16 *1:18 8.33139e-05
17 *1:19 8.59919e-05
18 *1 2.67795e-06

*RES
1 *1:19 *1 0.147486
2 *1:18 *1:19 4.58845
3 *1:17 *1:18 8
4 *1:15 *1:17 36.049
5 *1:14 *418:A1N 8
6 *1:13 *1:15 8
7 *1:12 *1:14 0.906186
8 *1:11 *1:13 49.5791
9 *1:11 *1:12 8
10 *1:10 *1:11 6.71262
11 *1:8 *1:10 8
12 *1:7 *371:A2 8
13 *1:7 *1:8 0.27063
14 *1:6 *1:7 5.81855
15 *1:5 *1:6 8
16 *1:4 *1:5 6.75637
17 *1:3 *1:4 8
18 *1:2 *1:3 0.253716
19 *1:1 *1:2 0.27063
20 *306:A *1:1 8
*END

*D_NET *2 0.00418386

*CONN
*I *430:A1N I *C 15.5 38.475 *L 0.000607 *D AOI2BB1X2
*I *305:A I *C 18.33 39.92 *L 0.0029 *D ADDFHX2
*I *372:A2 I *C 14.9 41.705 *L 0.00148 *D AOI31X2
*P *2 I *C 0.5 54.34 *L 0

*CAP
1 *2:1 1.19865e-06
2 *2:2 1.19865e-06
3 *2:3 1.22811e-05
4 *2:4 1.22811e-05
5 *2:5 8.39058e-05
6 *2:6 8.39058e-05
7 *2:7 4.91243e-05
8 *2:8 0.000187171
9 *2:9 0.000107879
10 *2:10 0.000138047
11 *2:11 0.000107879
12 *2:12 1.62834e-06
13 *2:13 7.36865e-05
14 *2:14 3.58236e-06
15 *2:15 0.000896519
16 *2:16 1.95401e-06
17 *2:17 5.99327e-07
18 *2:18 0.000822832
19 *2:20 5.99327e-07
20 *2:21 0.000736605
21 *2:23 0.000736605
22 *2:24 5.95099e-05
23 *2:25 6.21879e-05
24 *2 2.67795e-06

*RES
1 *2:25 *2 0.147486
2 *2:24 *2:25 3.27746
3 *2:23 *2:24 8
4 *2:21 *2:23 42.0902
5 *2:20 *372:A2 8
6 *2:18 *2:21 8
7 *2:17 *2:20 0.0335624
8 *2:16 *305:A 8
9 *2:15 *2:18 44.2907
10 *2:15 *2:17 8
11 *2:14 *2:16 0.101486
12 *2:13 *2:15 3.96633
13 *2:12 *2:14 0.084572
14 *2:11 *2:13 8
15 *2:10 *2:12 8
16 *2:9 *2:11 6.04124
17 *2:8 *2:10 7.35909
18 *2:8 *2:9 8
19 *2:7 *2:8 2.64422
20 *2:6 *2:7 8
21 *2:5 *2:6 4.69874
22 *2:4 *2:5 8
23 *2:3 *2:4 0.661055
24 *2:2 *2:3 8
25 *2:1 *2:2 0.0671249
26 *430:A1N *2:1 8
*END

*D_NET *3 0.00484113

*CONN
*I *304:A I *C 18.93 36.5 *L 0.0029 *D ADDFHX2
*I *401:A1N I *C 19.9 38.475 *L 0.000607 *D AOI2BB1X2
*I *384:A2 I *C 20.5 39.995 *L 0.00148 *D AOI31X2
*P *3 I *C 1.1 54.34 *L 0

*CAP
1 *3:1 1.95401e-06
2 *3:2 2.27968e-06
3 *3:3 3.25669e-07
4 *3:4 3.83208e-05
5 *3:5 3.83208e-05
6 *3:6 0.000130267
7 *3:7 0.000234481
8 *3:8 0.000104214
9 *3:9 2.55472e-05
10 *3:10 3.83208e-05
11 *3:11 2.55472e-05
12 *3:12 6.3868e-05
13 *3:13 1.30267e-06
14 *3:14 0.000888951
15 *3:15 2.55472e-05
16 *3:16 1.30267e-06
17 *3:17 0.000888951
18 *3:18 6.51337e-06
19 *3:20 0.00114588
20 *3:21 6.51337e-06
21 *3:22 0.00114588
22 *3:24 1.0748e-05
23 *3:25 1.0748e-05
24 *3:26 2.67795e-06
25 *3 2.67795e-06

*RES
1 *3:26 *3 0.147486
2 *3:25 *3:26 8
3 *3:24 *3:25 0.657997
4 *3:22 *3:24 8
5 *3:21 *384:A2 8
6 *3:20 *3:22 62.576
7 *3:18 *3:21 0.338288
8 *3:17 *3:20 8
9 *3:16 *401:A1N 8
10 *3:15 *3:18 8
11 *3:14 *3:17 47.3202
12 *3:13 *3:16 0.0676576
13 *3:12 *3:15 1.35127
14 *3:12 *3:14 8
15 *3:11 *3:13 8
16 *3:10 *3:12 2.02691
17 *3:9 *3:11 1.35127
18 *3:8 *3:10 8
19 *3:7 *3:9 8
20 *3:7 *3:8 5.41261
21 *3:6 *3:7 6.76576
22 *3:5 *3:6 8
23 *3:4 *3:5 2.02691
24 *3:3 *3:4 8
25 *3:2 *3:3 0.0169144
26 *3:1 *3:2 0.101486
27 *304:A *3:1 8
*END

*D_NET *4 0.00497252

*CONN
*I *303:A I *C 19.33 31.52 *L 0.0029 *D ADDFHX2
*I *378:A2 I *C 17.5 34.865 *L 0.00148 *D AOI31X2
*I *412:A1N I *C 15.5 35.055 *L 0.000607 *D AOI2BB1X2
*P *4 I *C 1.7 54.34 *L 0

*CAP
1 *4:1 2.02352e-06
2 *4:2 3.70978e-06
3 *4:3 1.68626e-06
4 *4:4 5.45246e-05
5 *4:5 5.45246e-05
6 *4:6 0.000240748
7 *4:7 0.000240748
8 *4:8 6.3868e-05
9 *4:9 0.000187664
10 *4:10 1.49808e-05
11 *4:11 0.00097119
12 *4:12 1.49808e-05
13 *4:13 2.39731e-06
14 *4:14 0.000847395
15 *4:16 2.39731e-06
16 *4:17 0.00113216
17 *4:19 0.00113216
18 *4:20 2.67795e-06
19 *4 2.67795e-06

*RES
1 *4:20 *4 0.147486
2 *4:19 *4:20 8
3 *4:17 *4:19 64.2414
4 *4:16 *412:A1N 8
5 *4:14 *4:17 8
6 *4:13 *4:16 0.13425
7 *4:12 *378:A2 8
8 *4:11 *4:14 45.6128
9 *4:11 *4:13 8
10 *4:10 *4:12 0.778062
11 *4:9 *4:11 6.63971
12 *4:9 *4:10 8
13 *4:8 *4:9 3.37818
14 *4:7 *4:8 8
15 *4:6 *4:7 12.1981
16 *4:5 *4:6 8
17 *4:4 *4:5 2.77539
18 *4:3 *4:4 8
19 *4:2 *4:3 0.0847546
20 *4:1 *4:2 0.101706
21 *303:A *4:1 8
*END

*D_NET *5 0.00566399

*CONN
*I *422:A1N I *C 20.9 29.545 *L 0.000607 *D AOI2BB1X2
*I *302:A I *C 18.33 29.66 *L 0.0029 *D ADDFHX2
*I *385:A2 I *C 19.9 33.155 *L 0.00148 *D AOI31X2
*P *5 I *C 2.3 54.34 *L 0

*CAP
1 *5:1 2.36077e-05
2 *5:2 2.36077e-05
3 *5:3 0.000177205
4 *5:4 0.000177205
5 *5:5 0.000204712
6 *5:6 0.000215842
7 *5:7 1.78744e-05
8 *5:8 2.69802e-05
9 *5:9 0.000109049
10 *5:10 2.02352e-06
11 *5:11 0.00100341
12 *5:12 0.000109049
13 *5:14 0.00100341
14 *5:15 3.10273e-05
15 *5:16 0.00125131
16 *5:17 3.10273e-05
17 *5:18 0.00125131
18 *5:20 2.67795e-06
19 *5 2.67795e-06

*RES
1 *5:20 *5 0.147486
2 *5:18 *5:20 8
3 *5:17 *385:A2 8
4 *5:16 *5:18 70.9014
5 *5:15 *5:17 1.55948
6 *5:14 *5:16 8
7 *5:12 *5:15 8
8 *5:11 *5:14 53.3106
9 *5:10 *302:A 8
10 *5:9 *5:12 5.55077
11 *5:8 *5:11 8
12 *5:7 *5:10 0.101706
13 *5:6 *5:9 8
14 *5:6 *5:8 1.35607
15 *5:5 *5:7 0.796693
16 *5:5 *5:6 9.49251
17 *5:4 *5:5 8
18 *5:3 *5:4 9.02
19 *5:2 *5:3 8
20 *5:1 *5:2 1.18656
21 *422:A1N *5:1 8
*END

*D_NET *6 0.00615609

*CONN
*I *301:A I *C 21.53 26.24 *L 0.0029 *D ADDFHX2
*I *393:A2 I *C 22.1 28.025 *L 0.00148 *D AOI31X2
*I *415:A1N I *C 23.5 29.545 *L 0.000607 *D AOI2BB1X2
*P *6 I *C 2.9 54.34 *L 0

*CAP
1 *6:1 2.02352e-06
2 *6:2 3.27135e-05
3 *6:3 3.069e-05
4 *6:4 4.08935e-05
5 *6:5 4.08935e-05
6 *6:6 8.97092e-05
7 *6:7 0.000188862
8 *6:8 9.91523e-05
9 *6:10 0.00133291
10 *6:11 9.54181e-05
11 *6:12 0.00123749
12 *6:13 3.37253e-06
13 *6:14 0.00146472
14 *6:15 3.37253e-06
15 *6:16 0.00146472
16 *6:18 1.1902e-05
17 *6:19 1.45799e-05
18 *6 2.67795e-06

*RES
1 *6:19 *6 0.147486
2 *6:18 *6:19 0.655492
3 *6:16 *6:18 8
4 *6:15 *415:A1N 8
5 *6:14 *6:16 82.8127
6 *6:13 *6:15 0.169509
7 *6:12 *6:14 8
8 *6:11 *6:13 8
9 *6:10 *6:12 65.1654
10 *6:10 *6:11 4.85692
11 *6:8 *6:10 8
12 *6:7 *393:A2 8
13 *6:7 *6:8 4.98357
14 *6:6 *6:7 4.50894
15 *6:5 *6:6 8
16 *6:4 *6:5 2.08154
17 *6:3 *6:4 8
18 *6:2 *6:3 1.54253
19 *6:1 *6:2 0.101706
20 *301:A *6:1 8
*END

*D_NET *7 0.0055008

*CONN
*I *300:A I *C 18.13 24.68 *L 0.0029 *D ADDFHX2
*I *374:A2 I *C 15.3 26.315 *L 0.00148 *D AOI31X2
*I *406:A1N I *C 15.5 28.215 *L 0.000607 *D AOI2BB1X2
*P *7 I *C 3.3 54.34 *L 0

*CAP
1 *7:1 2.02352e-06
2 *7:2 0.000137936
3 *7:3 0.000135913
4 *7:4 0.000180245
5 *7:5 0.000180245
6 *7:6 0.000129232
7 *7:7 0.000106706
8 *7:8 2.25267e-05
9 *7:9 0.000759713
10 *7:11 1.24543e-05
11 *7:12 0.000747259
12 *7:13 1.65986e-05
13 *7:14 0.001524
14 *7:15 1.65986e-05
15 *7:16 0.001524
16 *7:18 2.67795e-06
17 *7 2.67795e-06

*RES
1 *7:18 *7 0.147486
2 *7:16 *7:18 8
3 *7:15 *406:A1N 8
4 *7:14 *7:16 86.1213
5 *7:13 *7:15 0.926432
6 *7:12 *7:14 8
7 *7:11 *7:13 8
8 *7:9 *7:12 39.8494
9 *7:9 *7:11 0.664156
10 *7:8 *374:A2 8
11 *7:7 *7:9 8
12 *7:6 *7:8 1.2573
13 *7:6 *7:7 5.95564
14 *7:5 *7:6 8
15 *7:4 *7:5 9.44663
16 *7:3 *7:4 8
17 *7:2 *7:3 6.83122
18 *7:1 *7:2 0.101706
19 *300:A *7:1 8
*END

*D_NET *8 0.00630565

*CONN
*I *413:A1N I *C 20.5 24.795 *L 0.000607 *D AOI2BB1X2
*I *380:A2 I *C 19.3 22.895 *L 0.00148 *D AOI31X2
*I *299:A I *C 20.33 21.26 *L 0.0029 *D ADDFHX2
*P *8 I *C 3.9 54.34 *L 0

*CAP
1 *8:1 0.000128156
2 *8:2 0.000128156
3 *8:3 1.36312e-05
4 *8:4 8.1787e-05
5 *8:5 0.000110282
6 *8:6 0.00104008
7 *8:7 0.000112305
8 *8:9 0.000971928
9 *8:10 2.02352e-06
10 *8:12 0.00185597
11 *8:14 0.00185597
12 *8:15 2.67795e-06
13 *8 2.67795e-06

*RES
1 *8:15 *8 0.147486
2 *8:14 *8:15 8
3 *8:12 *8:14 104.65
4 *8:10 *299:A 8
5 *8:9 *8:12 8
6 *8:8 *380:A2 8
7 *8:7 *8:10 0.101706
8 *8:6 *8:9 51.4666
9 *8:6 *8:8 8
10 *8:5 *8:7 5.54295
11 *8:4 *8:6 3.46923
12 *8:4 *8:5 8
13 *8:3 *8:4 0.693846
14 *8:2 *8:3 8
15 *8:1 *8:2 6.44135
16 *413:A1N *8:1 8
*END

*D_NET *9 0.00665982

*CONN
*I *298:A I *C 20.13 15.98 *L 0.0029 *D ADDFHX2
*I *370:A2 I *C 17.5 19.475 *L 0.00148 *D AOI31X2
*I *417:A1N I *C 15.7 19.285 *L 0.000607 *D AOI2BB1X2
*P *9 I *C 4.5 54.34 *L 0

*CAP
1 *9:1 1.8237e-06
2 *9:2 6.99084e-06
3 *9:3 5.16715e-06
4 *9:4 8.407e-05
5 *9:5 8.407e-05
6 *9:6 0.000275266
7 *9:7 0.000275266
8 *9:8 6.81558e-05
9 *9:9 0.000182598
10 *9:10 4.18193e-05
11 *9:11 0.000114443
12 *9:12 4.18193e-05
13 *9:13 0.00203773
14 *9:15 0.00198971
15 *9:16 4.80175e-05
16 *9:17 0.000666511
17 *9:19 0.000666511
18 *9:20 3.22439e-05
19 *9:21 3.22439e-05
20 *9:22 2.67795e-06
21 *9 2.67795e-06

*RES
1 *9:22 *9 0.147486
2 *9:21 *9:22 8
3 *9:20 *9:21 1.97399
4 *9:19 *9:20 8
5 *9:17 *9:19 36.7076
6 *9:16 *417:A1N 8
7 *9:15 *9:17 8
8 *9:13 *9:16 2.68004
9 *9:13 *9:15 111.94
10 *9:12 *370:A2 8
11 *9:11 *9:13 8
12 *9:10 *9:12 2.10191
13 *9:9 *9:11 6.03678
14 *9:9 *9:10 8
15 *9:8 *9:9 3.46923
16 *9:7 *9:8 8
17 *9:6 *9:7 14.1186
18 *9:5 *9:6 8
19 *9:4 *9:5 5.24903
20 *9:3 *9:4 8
21 *9:2 *9:3 0.279686
22 *9:1 *9:2 0.0987126
23 *298:A *9:1 8
*END

*D_NET *10 0.00697179

*CONN
*I *297:A I *C 20.33 14.42 *L 0.0029 *D ADDFHX2
*I *421:A1N I *C 21.3 17.955 *L 0.000607 *D AOI2BB1X2
*I *387:A2 I *C 20.5 19.475 *L 0.00148 *D AOI31X2
*P *10 I *C 5.1 54.34 *L 0

*CAP
1 *10:1 1.8237e-06
2 *10:2 6.38294e-06
3 *10:3 4.55925e-06
4 *10:4 2.10175e-05
5 *10:5 2.10175e-05
6 *10:6 0.000211981
7 *10:7 0.000333392
8 *10:8 0.000121411
9 *10:9 4.08935e-05
10 *10:10 1.36312e-05
11 *10:11 4.08935e-05
12 *10:12 0.00100507
13 *10:13 4.04703e-06
14 *10:14 1.48391e-05
15 *10:15 0.000991443
16 *10:16 4.04703e-06
17 *10:17 1.48391e-05
18 *10:18 0.00204567
19 *10:21 0.00204567
20 *10:22 1.1902e-05
21 *10:23 1.45799e-05
22 *10 2.67795e-06

*RES
1 *10:23 *10 0.147486
2 *10:22 *10:23 0.655492
3 *10:21 *10:22 8
4 *10:18 *10:21 115.238
5 *10:17 *387:A2 8
6 *10:16 *421:A1N 8
7 *10:15 *10:18 8
8 *10:14 *10:17 0.74584
9 *10:13 *10:16 0.203411
10 *10:12 *10:15 52.3089
11 *10:12 *10:14 8
12 *10:11 *10:13 8
13 *10:10 *10:12 0.693846
14 *10:9 *10:11 2.08154
15 *10:8 *10:10 8
16 *10:7 *10:9 8
17 *10:7 *10:8 6.10233
18 *10:6 *10:7 11.2667
19 *10:5 *10:6 8
20 *10:4 *10:5 1.31226
21 *10:3 *10:4 8
22 *10:2 *10:3 0.246782
23 *10:1 *10:2 0.0987126
24 *297:A *10:1 8
*END

*D_NET *11 0.00772732

*CONN
*I *296:A I *C 25.53 12.56 *L 0.0029 *D ADDFHX2
*I *425:A1N I *C 23.9 17.955 *L 0.000607 *D AOI2BB1X2
*I *390:A2 I *C 23.3 19.475 *L 0.00148 *D AOI31X2
*P *11 I *C 5.7 54.34 *L 0

*CAP
1 *11:1 1.8237e-06
2 *11:2 5.77505e-06
3 *11:3 3.95135e-06
4 *11:4 8.407e-05
5 *11:5 8.407e-05
6 *11:6 0.000337608
7 *11:7 0.000441482
8 *11:8 0.000103874
9 *11:10 4.08935e-05
10 *11:11 0.00122317
11 *11:12 1.34901e-06
12 *11:13 0.00118228
13 *11:14 1.34901e-06
14 *11:15 0.00205753
15 *11:17 0.00205753
16 *11:18 4.7608e-05
17 *11:19 5.02859e-05
18 *11 2.67795e-06

*RES
1 *11:19 *11 0.147486
2 *11:18 *11:19 2.62197
3 *11:17 *11:18 8
4 *11:15 *11:17 115.9
5 *11:14 *390:A2 8
6 *11:13 *11:15 8
7 *11:12 *11:14 0.0678037
8 *11:11 *11:13 62.0227
9 *11:11 *11:12 8
10 *11:10 *11:11 2.08154
11 *11:8 *11:10 8
12 *11:7 *425:A1N 8
13 *11:7 *11:8 5.22088
14 *11:6 *11:7 18.051
15 *11:5 *11:6 8
16 *11:4 *11:5 5.24903
17 *11:3 *11:4 8
18 *11:2 *11:3 0.213877
19 *11:1 *11:2 0.0987126
20 *296:A *11:1 8
*END

*D_NET *12 0.00810579

*CONN
*I *295:A I *C 28.93 14.42 *L 0.0029 *D ADDFHX2
*I *428:A1N I *C 28.9 17.955 *L 0.000607 *D AOI2BB1X2
*I *395:A2 I *C 28.5 21.185 *L 0.00148 *D AOI31X2
*P *12 I *C 6.3 54.34 *L 0

*CAP
1 *12:1 1.8237e-06
2 *12:2 0.000222411
3 *12:3 0.000432382
4 *12:4 0.000211795
5 *12:6 2.72623e-05
6 *12:7 0.00156395
7 *12:8 6.07055e-06
8 *12:9 0.00153669
9 *12:10 6.07055e-06
10 *12:11 0.00196268
11 *12:13 0.00196268
12 *12:14 8.33139e-05
13 *12:15 8.59919e-05
14 *12 2.67795e-06

*RES
1 *12:15 *12 0.147486
2 *12:14 *12:15 4.58845
3 *12:13 *12:14 8
4 *12:11 *12:13 110.606
5 *12:10 *395:A2 8
6 *12:9 *12:11 8
7 *12:8 *12:10 0.305117
8 *12:7 *12:9 80.0628
9 *12:7 *12:8 8
10 *12:6 *12:7 1.38769
11 *12:4 *12:6 8
12 *12:3 *428:A1N 8
13 *12:3 *12:4 10.6452
14 *12:2 *12:3 11.7169
15 *12:1 *12:2 0.0987126
16 *295:A *12:1 8
*END

*D_NET *13 0.00731024

*CONN
*I *294:A I *C 26.93 15.98 *L 0.0029 *D ADDFHX2
*I *400:A1N I *C 26.5 19.285 *L 0.000607 *D AOI2BB1X2
*I *398:A2 I *C 25.3 21.185 *L 0.00148 *D AOI31X2
*P *13 I *C 6.7 54.34 *L 0

*CAP
1 *13:1 1.8237e-06
2 *13:2 6.99084e-06
3 *13:3 5.16715e-06
4 *13:4 1.05087e-05
5 *13:5 1.05087e-05
6 *13:6 0.000248286
7 *13:7 0.000248286
8 *13:8 1.36312e-05
9 *13:9 9.54181e-05
10 *13:10 2.76547e-05
11 *13:11 8.1787e-05
12 *13:12 2.76547e-05
13 *13:13 0.000100501
14 *13:15 0.000107921
15 *13:16 7.41956e-06
16 *13:18 0.00116914
17 *13:19 0.00116914
18 *13:20 0.00195082
19 *13:21 0.00195082
20 *13:22 3.5706e-05
21 *13:23 3.83839e-05
22 *13 2.67795e-06

*RES
1 *13:23 *13 0.147486
2 *13:22 *13:23 1.96648
3 *13:21 *13:22 8
4 *13:20 *13:21 109.944
5 *13:19 *13:20 8
6 *13:18 *13:19 60.9913
7 *13:16 *13:18 8
8 *13:15 *398:A2 8
9 *13:15 *13:16 0.37292
10 *13:13 *13:15 5.05137
11 *13:12 *400:A1N 8
12 *13:11 *13:13 8
13 *13:10 *13:12 1.38998
14 *13:9 *13:11 4.16308
15 *13:9 *13:10 8
16 *13:8 *13:9 0.693846
17 *13:7 *13:8 8
18 *13:6 *13:7 12.7625
19 *13:5 *13:6 8
20 *13:4 *13:5 0.656129
21 *13:3 *13:4 8
22 *13:2 *13:3 0.279686
23 *13:1 *13:2 0.0987126
24 *294:A *13:1 8
*END

*D_NET *14 0.0063987

*CONN
*I *293:A I *C 27.33 22.82 *L 0.0029 *D ADDFHX2
*I *375:A2 I *C 24.5 24.605 *L 0.00148 *D AOI31X2
*I *404:A1N I *C 24.5 26.125 *L 0.000607 *D AOI2BB1X2
*P *14 I *C 7.3 54.34 *L 0

*CAP
1 *14:1 2.02352e-06
2 *14:2 7.08231e-06
3 *14:3 5.05879e-06
4 *14:4 0.000190836
5 *14:5 0.000190836
6 *14:6 0.00011534
7 *14:7 0.000215842
8 *14:8 0.000102525
9 *14:10 2.02352e-06
10 *14:11 0.00111461
11 *14:13 0.00111461
12 *14:14 0.00166627
13 *14:15 0.00166627
14 *14:16 2.67795e-06
15 *14 2.67795e-06

*RES
1 *14:16 *14 0.147486
2 *14:15 *14:16 8
3 *14:14 *14:15 94.0622
4 *14:13 *14:14 8
5 *14:11 *14:13 58.216
6 *14:10 *404:A1N 8
7 *14:8 *14:11 8
8 *14:8 *14:10 0.101706
9 *14:7 *375:A2 8
10 *14:7 *14:8 5.05137
11 *14:6 *14:7 5.79721
12 *14:5 *14:6 8
13 *14:4 *14:5 9.71385
14 *14:3 *14:4 8
15 *14:2 *14:3 0.254264
16 *14:1 *14:2 0.101706
17 *293:A *14:1 8
*END

*D_NET *15 0.00682938

*CONN
*I *292:A I *C 32.13 26.24 *L 0.0029 *D ADDFHX2
*I *379:A2 I *C 26.1 26.315 *L 0.00148 *D AOI31X2
*I *409:A1N I *C 27.9 24.795 *L 0.000607 *D AOI2BB1X2
*P *15 I *C 7.9 54.34 *L 0

*CAP
1 *15:1 2.02352e-06
2 *15:2 1.92234e-05
3 *15:3 1.71999e-05
4 *15:4 0.000272623
5 *15:5 0.000272623
6 *15:6 1.34901e-05
7 *15:7 0.000121411
8 *15:8 0.000136312
9 *15:9 0.000107921
10 *15:10 0.00132261
11 *15:11 1.36312e-05
12 *15:12 1.34901e-06
13 *15:13 0.0011863
14 *15:14 1.36312e-05
15 *15:15 1.34901e-06
16 *15:16 0.00165442
17 *15:17 6.74505e-06
18 *15:19 0.00165442
19 *15:20 6.74505e-06
20 *15:21 2.67795e-06
21 *15 2.67795e-06

*RES
1 *15:21 *15 0.147486
2 *15:20 *409:A1N 8
3 *15:19 *15:21 8
4 *15:17 *15:20 0.339018
5 *15:16 *15:19 93.4005
6 *15:15 *379:A2 8
7 *15:14 *15:17 8
8 *15:13 *15:16 8
9 *15:12 *15:15 0.0678037
10 *15:11 *15:14 0.693846
11 *15:10 *15:13 61.7743
12 *15:10 *15:12 8
13 *15:9 *15:11 8
14 *15:8 *15:10 6.93846
15 *15:7 *15:9 5.42429
16 *15:7 *15:8 8
17 *15:6 *15:7 0.678037
18 *15:5 *15:6 8
19 *15:4 *15:5 13.8769
20 *15:3 *15:4 8
21 *15:2 *15:3 0.864497
22 *15:1 *15:2 0.101706
23 *292:A *15:1 8
*END

*D_NET *16 0.00605244

*CONN
*I *411:A1N I *C 29.7 29.545 *L 0.000607 *D AOI2BB1X2
*I *291:A I *C 27.53 28.1 *L 0.0029 *D ADDFHX2
*I *381:A2 I *C 26.3 29.735 *L 0.00148 *D AOI31X2
*P *16 I *C 8.5 54.34 *L 0

*CAP
1 *16:1 3.70978e-05
2 *16:2 3.70978e-05
3 *16:3 0.000149943
4 *16:4 0.000149943
5 *16:5 2.69802e-05
6 *16:6 0.000134564
7 *16:7 8.1787e-05
8 *16:8 0.000109607
9 *16:9 0.00124436
10 *16:10 2.02352e-06
11 *16:11 2.69802e-06
12 *16:12 0.00116257
13 *16:14 2.69802e-06
14 *16:15 0.00145286
15 *16:17 0.00145286
16 *16:18 2.67795e-06
17 *16 2.67795e-06

*RES
1 *16:18 *16 0.147486
2 *16:17 *16:18 8
3 *16:15 *16:17 82.1509
4 *16:14 *381:A2 8
5 *16:12 *16:15 8
6 *16:11 *16:14 0.135607
7 *16:10 *291:A 8
8 *16:9 *16:12 60.4756
9 *16:9 *16:11 8
10 *16:8 *16:10 0.101706
11 *16:7 *16:9 4.16308
12 *16:6 *16:8 5.40734
13 *16:6 *16:7 8
14 *16:5 *16:6 1.35607
15 *16:4 *16:5 8
16 *16:3 *16:4 7.63231
17 *16:2 *16:3 8
18 *16:1 *16:2 1.8646
19 *411:A1N *16:1 8
*END

*D_NET *17 0.00537767

*CONN
*I *382:A2 I *C 28.7 31.445 *L 0.00148 *D AOI31X2
*I *290:A I *C 28.33 34.94 *L 0.0029 *D ADDFHX2
*I *399:A1N I *C 27.3 31.635 *L 0.000607 *D AOI2BB1X2
*P *17 I *C 9.1 54.34 *L 0

*CAP
1 *17:1 3.37253e-06
2 *17:2 3.37253e-06
3 *17:3 2.72623e-05
4 *17:4 2.72623e-05
5 *17:5 1.34901e-05
6 *17:6 0.000227722
7 *17:7 0.000217163
8 *17:8 6.81558e-05
9 *17:9 4.88503e-06
10 *17:10 0.00120656
11 *17:11 6.81558e-05
12 *17:12 1.95401e-06
13 *17:13 0.00120656
14 *17:14 4.04703e-06
15 *17:16 0.00114415
16 *17:17 4.04703e-06
17 *17:18 0.00114415
18 *17:20 2.67795e-06
19 *17 2.67795e-06

*RES
1 *17:20 *17 0.147486
2 *17:18 *17:20 8
3 *17:17 *399:A1N 8
4 *17:16 *17:18 64.9127
5 *17:14 *17:17 0.203411
6 *17:13 *17:16 8
7 *17:12 *290:A 8
8 *17:11 *17:14 8
9 *17:10 *17:13 64.2778
10 *17:9 *17:12 0.101486
11 *17:8 *17:11 3.46923
12 *17:7 *17:10 8
13 *17:7 *17:9 0.15223
14 *17:6 *17:8 8
15 *17:6 *17:7 10.8435
16 *17:5 *17:6 0.678037
17 *17:4 *17:5 8
18 *17:3 *17:4 1.38769
19 *17:2 *17:3 8
20 *17:1 *17:2 0.169509
21 *382:A2 *17:1 8
*END

*D_NET *18 0.00479876

*CONN
*I *289:A I *C 25.13 31.52 *L 0.0029 *D ADDFHX2
*I *416:A1N I *C 23.3 35.055 *L 0.000607 *D AOI2BB1X2
*I *391:A2 I *C 22.7 33.155 *L 0.00148 *D AOI31X2
*P *18 I *C 9.7 54.34 *L 0

*CAP
1 *18:1 2.02352e-06
2 *18:2 3.70978e-06
3 *18:3 1.68626e-06
4 *18:4 0.00012268
5 *18:5 0.00012268
6 *18:6 0.000107921
7 *18:7 0.000238143
8 *18:8 0.000158881
9 *18:9 4.08935e-05
10 *18:10 2.86588e-05
11 *18:12 4.08935e-05
12 *18:13 0.000850382
13 *18:14 4.04703e-06
14 *18:15 0.000850382
15 *18:16 4.04703e-06
16 *18:17 0.00110819
17 *18:19 0.00110819
18 *18:20 2.67795e-06
19 *18 2.67795e-06

*RES
1 *18:20 *18 0.147486
2 *18:19 *18:20 8
3 *18:17 *18:19 62.8989
4 *18:16 *391:A2 8
5 *18:15 *18:17 8
6 *18:14 *18:16 0.203411
7 *18:13 *18:15 45.4038
8 *18:12 *18:14 8
9 *18:10 *18:13 8
10 *18:9 *18:12 2.08154
11 *18:8 *416:A1N 8
12 *18:8 *18:10 1.48847
13 *18:7 *18:9 8
14 *18:7 *18:8 6.63851
15 *18:6 *18:7 5.42429
16 *18:5 *18:6 8
17 *18:4 *18:5 6.24462
18 *18:3 *18:4 8
19 *18:2 *18:3 0.0847546
20 *18:1 *18:2 0.101706
21 *289:A *18:1 8
*END

*D_NET *19 0.00459576

*CONN
*I *288:A I *C 27.565 36.615 *L 0.00253 *D ADDFX2
*I *419:A1N I *C 23.5 41.895 *L 0.000607 *D AOI2BB1X2
*I *386:A2 I *C 21.7 38.285 *L 0.00148 *D AOI31X2
*P *19 I *C 10.1 54.34 *L 0

*CAP
1 *19:1 4.23369e-06
2 *19:2 7.45781e-05
3 *19:3 7.03444e-05
4 *19:4 0.000255472
5 *19:5 0.000255472
6 *19:6 2.60535e-05
7 *19:7 0.000273562
8 *19:8 0.000260535
9 *19:9 0.000114962
10 *19:10 1.30267e-05
11 *19:12 0.000114962
12 *19:13 0.000838593
13 *19:14 1.23754e-05
14 *19:15 0.000838593
15 *19:16 1.23754e-05
16 *19:17 0.000712632
17 *19:19 0.000712632
18 *19:20 2.67795e-06
19 *19 2.67795e-06

*RES
1 *19:20 *19 0.147486
2 *19:19 *19:20 8
3 *19:17 *19:19 40.7477
4 *19:16 *386:A2 8
5 *19:15 *19:17 8
6 *19:14 *19:16 0.642747
7 *19:13 *19:15 44.7573
8 *19:12 *19:14 8
9 *19:10 *19:13 8
10 *19:9 *19:12 6.08073
11 *19:8 *419:A1N 8
12 *19:8 *19:10 0.676576
13 *19:7 *19:9 8
14 *19:7 *19:8 12.8549
15 *19:6 *19:7 1.35315
16 *19:5 *19:6 8
17 *19:4 *19:5 13.5127
18 *19:3 *19:4 8
19 *19:2 *19:3 3.65351
20 *19:1 *19:2 0.219887
21 *288:A *19:1 8
*END

*D_NET *20 0.00434077

*CONN
*I *287:A I *C 27.33 38.36 *L 0.0029 *D ADDFHX2
*I *420:A1N I *C 28.3 39.805 *L 0.000607 *D AOI2BB1X2
*I *388:A2 I *C 27.7 41.705 *L 0.00148 *D AOI31X2
*P *20 I *C 10.7 54.34 *L 0

*CAP
1 *20:1 1.95401e-06
2 *20:2 6.1877e-06
3 *20:3 4.23369e-06
4 *20:4 1.27736e-05
5 *20:5 1.27736e-05
6 *20:6 0.000104214
7 *20:7 0.000104214
8 *20:8 6.3868e-05
9 *20:9 7.66416e-05
10 *20:10 0.000104214
11 *20:11 1.27736e-05
12 *20:12 0.000104214
13 *20:13 5.86204e-06
14 *20:14 2.55472e-05
15 *20:15 5.86204e-06
16 *20:16 0.00109554
17 *20:18 1.36781e-05
18 *20:19 0.00107
19 *20:20 1.36781e-05
20 *20:21 0.000748591
21 *20:23 0.000748591
22 *20:24 2.67795e-06
23 *20 2.67795e-06

*RES
1 *20:24 *20 0.147486
2 *20:23 *20:24 8
3 *20:21 *20:23 42.7615
4 *20:20 *388:A2 8
5 *20:19 *20:21 8
6 *20:18 *20:20 0.710404
7 *20:16 *20:19 56.9625
8 *20:16 *20:18 8
9 *20:15 *420:A1N 8
10 *20:14 *20:16 1.35127
11 *20:13 *20:15 0.304459
12 *20:12 *20:14 8
13 *20:11 *20:13 8
14 *20:10 *20:12 5.41261
15 *20:9 *20:11 0.675637
16 *20:9 *20:10 8
17 *20:8 *20:9 3.37818
18 *20:7 *20:8 8
19 *20:6 *20:7 5.41261
20 *20:5 *20:6 8
21 *20:4 *20:5 0.675637
22 *20:3 *20:4 8
23 *20:2 *20:3 0.219887
24 *20:1 *20:2 0.101486
25 *287:A *20:1 8
*END

*D_NET *21 0.00365769

*CONN
*I *286:A I *C 26.165 40.035 *L 0.00253 *D ADDFX2
*I *389:A2 I *C 26.5 43.415 *L 0.00148 *D AOI31X2
*I *423:A1N I *C 24.3 43.225 *L 0.000607 *D AOI2BB1X2